Circuit: * C:\Users\HP\Desktop\Analog project\Led Driver\LM3914 andLM3915\LM3915_Test.asc

Fatal Error: v3: requires a minimum of 5 parameters.  Only 4 specified.

