Circuit: * D:\Analog project\Filters\Final Design\Filters.asc

Direct Newton iteration failed to find .op point.  (Use ".option noopiter" to skip.)
Starting Gmin stepping
Gmin = 10
vernier = 0.5
vernier = 0.25
vernier = 0.125
Gmin = 5.5165
vernier = 0.0625
vernier = 0.03125
vernier = 0.015625
vernier = 0.0078125
Gmin = 5.48432
vernier = 0.00390625
vernier = 0.00195312
vernier = 0.000976562
vernier = 0.000488281
Gmin = 0
Gmin stepping failed

Starting source stepping with srcstepmethod=0
Source Step = 3.0303%
Source Step = 33.3333%
Source Step = 63.6364%
Source Step = 93.9394%
Source stepping succeeded in finding the operating point.


Date: Sat Feb  3 00:01:46 2024
Total elapsed time: 0.379 seconds.

tnom = 27
temp = 27
method = trap
totiter = 1741
traniter = 0
tranpoints = 0
accept = 0
rejected = 0
matrix size = 257
fillins = 453
solver = Normal
Avg thread counts: 2.2/0.0/8.0/1.1
Matrix Compiler1:    1761 opcodes
Matrix Compiler2: off  [3.0]/4.0/4.4

