Circuit: * D:\Analog project\Filters\Analog_Project\ActiveBandpassFilter.asc

Error on line 2 : v1 n006 0 ac ac1 0
	 Unknown parameter "ac1"
Direct Newton iteration for .op point succeeded.

Date: Sat Feb  3 00:03:50 2024
Total elapsed time: 0.054 seconds.

tnom = 27
temp = 27
method = trap
totiter = 11
traniter = 0
tranpoints = 0
accept = 0
rejected = 0
matrix size = 39
fillins = 28
solver = Normal
Avg thread counts: 8.0/0.0/8.0/5.5
Matrix Compiler1:     170 opcodes
Matrix Compiler2: 3.59 KB object code size
