Circuit: * D:\Analog project\Filters\Analog_Project\PassiveBandpassFilter.asc

.OP point found by inspection.

Date: Sat Feb  3 00:03:33 2024
Total elapsed time: 0.043 seconds.

tnom = 27
temp = 27
method = trap
totiter = 0
traniter = 0
tranpoints = 0
accept = 0
rejected = 0
matrix size = 4
fillins = 0
solver = Normal
Avg thread counts: 8.0/0.0/0.0/1.8
Matrix Compiler1:       7 opcodes
Matrix Compiler2:      21 opcodes
