Circuit: * D:\Analog project\Filters\Draft1.asc

WARNING: Less than two connections to node n002.  This node is used by r2.
Direct Newton iteration for .op point succeeded.

Date: Sat Feb  3 00:03:09 2024
Total elapsed time: 0.066 seconds.

tnom = 27
temp = 27
method = trap
totiter = 17
traniter = 0
tranpoints = 0
accept = 0
rejected = 0
matrix size = 14
fillins = 5
solver = Normal
Avg thread counts: 8.0/0.0/8.0/3.6
Matrix Compiler1:      44 opcodes
Matrix Compiler2: 1.25 KB object code size
