Circuit: * C:\Users\mihir\OneDrive\Documents\Uni\Sem 3\Analogue Project\Draft6.asc

.OP point found by inspection.

Date: Sat Oct 14 14:27:14 2023
Total elapsed time: 1.230 seconds.

tnom = 27
temp = 27
method = modified trap
totiter = 948006
traniter = 948006
tranpoints = 400033
accept = 240033
rejected = 160000
matrix size = 3
fillins = 0
solver = Normal
Avg thread counts: 1.0/1.0/1.0/1.0
Matrix Compiler1: off  [0.1]/0.1/0.1
Matrix Compiler2: off  [0.1]/0.2/0.1

