Circuit: * C:\Users\HP\Desktop\Analog project\Filters\Filters.asc

Direct Newton iteration failed to find .op point.  (Use ".option noopiter" to skip.)
Starting Gmin stepping
Gmin = 10
vernier = 0.5
vernier = 0.25
vernier = 0.125
Gmin = 5.5165
vernier = 0.0625
vernier = 0.03125
vernier = 0.015625
vernier = 0.0078125
Gmin = 5.48432
vernier = 0.00390625
vernier = 0.00195312
vernier = 0.000976562
vernier = 0.000488281
Gmin = 0
Gmin stepping failed

Starting source stepping with srcstepmethod=0
Source Step = 3.0303%
Source Step = 33.3333%
Source Step = 63.6364%
Source Step = 93.9394%
Source stepping succeeded in finding the operating point.


Date: Tue Dec  5 07:30:51 2023
Total elapsed time: 0.595 seconds.

tnom = 27
temp = 27
method = trap
totiter = 1741
traniter = 0
tranpoints = 0
accept = 0
rejected = 0
matrix size = 257
fillins = 453
solver = Normal
Avg thread counts: 1.4/0.0/8.0/1.1
Matrix Compiler1:    1761 opcodes
Matrix Compiler2: 30.34 KB object code size  3.8/3.4/[2.0]

