Circuit: * C:\Users\mihir\OneDrive\Documents\Uni\Sem 3\Analogue Project\Filters.asc

Direct Newton iteration failed to find .op point.  (Use ".option noopiter" to skip.)
Starting Gmin stepping
Increasing initial diagonal Gmin to 100
Gmin = 100
vernier = 0.5
vernier = 0.25
Gmin = 26.2144
vernier = 0.125
vernier = 0.0625
vernier = 0.03125
vernier = 0.015625
Gmin = 24.5764
vernier = 0.0078125
vernier = 0.00390625
vernier = 0.00195312
vernier = 0.000976562
Gmin = 24.5943
vernier = 0.000488281
Gmin = 0
Gmin stepping failed

Starting source stepping with srcstepmethod=0
Source Step = 3.0303%
Source Step = 33.3333%
Source Step = 63.6364%
Source Step = 93.9394%
Source stepping succeeded in finding the operating point.

Heightened Def Con from 93.1855 to 93.1855

Date: Sat Oct 14 14:43:26 2023
Total elapsed time: 71.730 seconds.

tnom = 27
temp = 27
method = modified trap
totiter = 8041002
traniter = 8039230
tranpoints = 3145576
accept = 2190347
rejected = 955230
matrix size = 55
fillins = 92
solver = Normal
Avg thread counts: 1.0/1.0/1.0/1.0
Matrix Compiler1: 6.39 KB object code size  3.0/1.6/[1.1]
Matrix Compiler2: 6.26 KB object code size  1.0/1.5/[0.4]

